Questionable use of curly braces in ".model minmos1 nmos {vto=-1,kp=0.015,lambda=0,w=1m,l=1m,gamma=0}"
    Error: undefined symbol in: "[vto]=-1,kp=0.015,lambda=0,w=1m,l=1m,gamma=0"
Questionable use of curly braces in ".model minmos2 nmos {vto=-1,kp=0.2,lambda=0,w=1m,l=1m,gamma=0}"
    Error: undefined symbol in: "[vto]=-1,kp=0.2,lambda=0,w=1m,l=1m,gamma=0"
Circuit: * Z:\home\fedemgp\Dropbox\circuitos\TL3\TP3 - simulacion\simulacion.asc

C7: both pins shorted together -- ignoring.
WARNING: Node N002 is floating.

Direct Newton iteration failed to find .op point.  (Use ".option noopiter" to skip.)
Starting Gmin stepping
Gmin = 10
Gmin = 1.07374
Gmin = 0.115292
Gmin = 0.0123794
Gmin = 0.00132923
Gmin = 0.000142725
Gmin = 1.5325e-005
Gmin = 1.6455e-006
Gmin = 1.76685e-007
Gmin = 1.89714e-008
Gmin = 2.03704e-009
Gmin = 2.18725e-010
Gmin = 2.34854e-011
Gmin = 2.52173e-012
Gmin = 2.70769e-013
Gmin = 0
Gmin stepping succeeded in finding the operating point.


Date: Tue Dec 01 15:05:12 2015
Total elapsed time: 2.203 seconds.

tnom = 27
temp = 27
method = trap
totiter = 369
traniter = 0
tranpoints = 0
accept = 0
rejected = 0
matrix size = 14
fillins = 4
solver = Normal
Matrix Compiler1:      89 opcodes
Matrix Compiler2: off  [6.4]/8.0/6.9


